MastesRls/DataRaw/IEEE30.raw
0,   100.00
IEEE Test System, 30 Buses, 6 Generators          / PSS/E-30.0    
Created by College of Electrical Engineering, Zhejiang University, Mon 27 Jun 2011 14:39:13
     1,  ' Bus-1  ',   1.0000,    3,    0,     0,    1,    1,    1.060,     0.000,    1
     2,  ' Bus-2  ',   1.0000,    2,    0,     0,    1,    1,    1.045,    -5.527,    1
     3,  ' Bus-3  ',   1.0000,    1,    0,     0,    1,    1,    1.021,    -7.986,    1
     4,  ' Bus-4  ',   1.0000,    1,    0,     0,    1,    1,    1.012,    -9.640,    1
     5,  ' Bus-5  ',   1.0000,    2,    0,     0,    1,    1,    1.010,    -14.37,    1
     6,  ' Bus-6  ',   1.0000,    1,    0,     0,    1,    1,    1.010,    -11.36,    1    
     7,  ' Bus-7  ',   1.0000,    1,    0,     0,    1,    1,    1.002,    -13.12,    1
     8,  ' Bus-8  ',   1.0000,    2,    0,     0,    1,    1,    1.010,    -12.10,    1
     9,  ' Bus-9  ',   1.0000,    1,    0,     0,    1,    1,    1.051,    -14.41,    1
    10,  ' Bus-10 ',   1.0000,    1,    0,    19,    1,    1,    1.045,    -16.01,    1
    11,  ' Bus-11 ',   1.0000,    2,    0,     0,    1,    1,    1.082,    -14.41,    1
    12,  ' Bus-12 ',   1.0000,    1,    0,     0,    1,    1,    1.057,    -15.27,    1
    13,  ' Bus-13 ',   1.0000,    2,    0,     0,    1,    1,    1.071,    -15.27,    1
    14,  ' Bus-14 ',   1.0000,    1,    0,     0,    1,    1,    1.042,    -16.16,    1
    15,  ' Bus-15 ',   1.0000,    1,    0,     0,    1,    1,    1.037,    -16.25,    1
    16,  ' Bus-16 ',   1.0000,    1,    0,     0,    1,    1,    1.044,    -15.85,    1
    17,  ' Bus-17 ',   1.0000,    1,    0,     0,    1,    1,    1.040,    -16.17,    1
    18,  ' Bus-18 ',   1.0000,    1,    0,     0,    1,    1,    1.028,    -16.86,    1
    19,  ' Bus-19 ',   1.0000,    1,    0,     0,    1,    1,    1.025,    -17.03,    1
    20,  ' Bus-20 ',   1.0000,    1,    0,     0,    1,    1,    1.030,    -16.83,    1
    21,  ' Bus-21 ',   1.0000,    1,    0,     0,    1,    1,    1.033,    -16.45,    1
    22,  ' Bus-22 ',   1.0000,    1,    0,     0,    1,    1,    1.033,    -16.44,    1
    23,  ' Bus-23 ',   1.0000,    1,    0,     0,    1,    1,    1.027,    -16.63,    1
    24,  ' Bus-24 ',   1.0000,    1,    0,   4.3,    1,    1,    1.021,    -16.80,    1
    25,  ' Bus-25 ',   1.0000,    1,    0,     0,    1,    1,    1.017,    -16.37,    1
    26,  ' Bus-26 ',   1.0000,    1,    0,     0,    1,    1,    0.999,    -16.79,    1
    27,  ' Bus-27 ',   1.0000,    1,    0,     0,    1,    1,    1.023,    -15.84,    1
    28,  ' Bus-28 ',   1.0000,    1,    0,     0,    1,    1,    1.007,    -11.98,    1
    29,  ' Bus-29 ',   1.0000,    1,    0,     0,    1,    1,    1.003,    -17.07,    1
    30,  ' Bus-30 ',   1.0000,    1,    0,     0,    1,    1,    0.992,    -17.95,    1
/ END OF BUS DATA, BEGIN LOAD DATA
     2,    '1',    1,    1,    1,   21.7,   12.7,    0,    0,    0,    0,    1
     3,    '1',    1,    1,    1,    2.4,    1.2,    0,    0,    0,    0,    1
     4,    '1',    1,    1,    1,    7.6,    1.6,    0,    0,    0,    0,    1
     5,    '1',    1,    1,    1,   94.2,   19.0,    0,    0,    0,    0,    1
     7,    '1',    1,    1,    1,   22.8,   10.9,    0,    0,    0,    0,    1
     8,    '1',    1,    1,    1,   30.0,   30.0,    0,    0,    0,    0,    1
    10,    '1',    1,    1,    1,    5.8,    2.0,    0,    0,    0,    0,    1
    12,    '1',    1,    1,    1,   11.2,    7.5,    0,    0,    0,    0,    1
    14,    '1',    1,    1,    1,    6.2,    1.6,    0,    0,    0,    0,    1
    15,    '1',    1,    1,    1,    8.2,    2.5,    0,    0,    0,    0,    1
    16,    '1',    1,    1,    1,    3.5,    1.8,    0,    0,    0,    0,    1
    17,    '1',    1,    1,    1,    9.0,    5.8,    0,    0,    0,    0,    1
    18,    '1',    1,    1,    1,    3.2,    0.9,    0,    0,    0,    0,    1
    19,    '1',    1,    1,    1,    9.5,    3.4,    0,    0,    0,    0,    1
    20,    '1',    1,    1,    1,    2.2,    0.7,    0,    0,    0,    0,    1
    21,    '1',    1,    1,    1,   17.5,   11.2,    0,    0,    0,    0,    1
    23,    '1',    1,    1,    1,    3.2,    1.6,    0,    0,    0,    0,    1
    24,    '1',    1,    1,    1,    8.7,    6.7,    0,    0,    0,    0,    1
    26,    '1',    1,    1,    1,    3.5,    2.3,    0,    0,    0,    0,    1
    29,    '1',    1,    1,    1,    2.4,    0.9,    0,    0,    0,    0,    1
    30,    '1',    1,    1,    1,   10.6,    1.9,    0,    0,    0,    0,    1
0 / END OF LOAD DATA, BEGIN GENERATOR DATA
     1,    '1',   261.033,   -20.3561,   9999,  -9999,    1.060,    0,    100,    0,    1,    0,    0,    1,    1,    100,    9999,    -9999,    1,    1
     2,    '1',     40.00,    57.1347,     50,    -40,    1.045,    0,    100,    0,    1,    0,    0,    1,    1,    100,    9999,    -9999,    1,    1
     5,    '1',      0.00,    35.6792,     40,    -40,    1.010,    0,    100,    0,    1,    0,    0,    1,    1,    100,    9999,    -9999,    1,    1
     8,    '1',      0.00,    36.2542,     40,    -10,    1.010,    0,    100,    0,    1,    0,    0,    1,    1,    100,    9999,    -9999,    1,    1
    11,    '1',      0.00,    16.0659,     24,     -6,    1.082,    0,    100,    0,    1,    0,    0,    1,    1,    100,    9999,    -9999,    1,    1
    13,    '1',      0.00,    10.4836,     24,     -6,    1.071,    0,    100,    0,    1,    0,    0,    1,    1,    100,    9999,    -9999,    1,    1
0 / END OF GENERATOR DATA, BEGIN BRANCH DATA               
     2,     1,    '1',    0.0192,  0.0575,    0.0528,    0,    0,    0,    0,    0,    0,    0,    1,    0,    1,    1
     3,     1,    '1',    0.0452,  0.1852,    0.0408,    0,    0,    0,    0,    0,    0,    0,    1,    0,    1,    1
     4,     2,    '1',    0.0570,  0.1737,    0.0368,    0,    0,    0,    0,    0,    0,    0,    1,    0,    1,    1
     4,     3,    '1',    0.0132,  0.0379,    0.0084,    0,    0,    0,    0,    0,    0,    0,    1,    0,    1,    1
     5,     2,    '1',    0.0472,  0.1983,    0.0418,    0,    0,    0,    0,    0,    0,    0,    1,    0,    1,    1
     6,     2,    '1',    0.0581,  0.1763,    0.0374,    0,    0,    0,    0,    0,    0,    0,    1,    0,    1,    1
     6,     4,    '1',    0.0119,  0.0414,    0.0090,    0,    0,    0,    0,    0,    0,    0,    1,    0,    1,    1
     7,     5,    '1',    0.0460,  0.1160,    0.0204,    0,    0,    0,    0,    0,    0,    0,    1,    0,    1,    1
     7,     6,    '1',    0.0267,  0.0820,    0.0170,    0,    0,    0,    0,    0,    0,    0,    1,    0,    1,    1
     8,     6,    '1',    0.0120,  0.0420,    0.0090,    0,    0,    0,    0,    0,    0,    0,    1,    0,    1,    1
    11,     9,    '1',    0.0000,  0.2080,    0.0000,    0,    0,    0,    0,    0,    0,    0,    1,    0,    1,    1
    10,     9,    '1',    0.0000,  0.1100,    0.0000,    0,    0,    0,    0,    0,    0,    0,    1,    0,    1,    1
    13,    12,    '1',    0.0000,  0.1400,    0.0000,    0,    0,    0,    0,    0,    0,    0,    1,    0,    1,    1
    14,    12,    '1',    0.1231,  0.2559,    0.0000,    0,    0,    0,    0,    0,    0,    0,    1,    0,    1,    1
    15,    12,    '1',    0.0662,  0.1304,    0.0000,    0,    0,    0,    0,    0,    0,    0,    1,    0,    1,    1
    16,    12,    '1',    0.0945,  0.1987,    0.0000,    0,    0,    0,    0,    0,    0,    0,    1,    0,    1,    1
    15,    14,    '1',    0.2210,  0.1997,    0.0000,    0,    0,    0,    0,    0,    0,    0,    1,    0,    1,    1
    17,    16,    '1',    0.0524,  0.1923,    0.0000,    0,    0,    0,    0,    0,    0,    0,    1,    0,    1,    1
    18,    15,    '1',    0.1073,  0.2185,    0.0000,    0,    0,    0,    0,    0,    0,    0,    1,    0,    1,    1
    19,    18,    '1',    0.0639,  0.1292,    0.0000,    0,    0,    0,    0,    0,    0,    0,    1,    0,    1,    1
    20,    19,    '1',    0.0340,  0.0680,    0.0000,    0,    0,    0,    0,    0,    0,    0,    1,    0,    1,    1
    20,    10,    '1',    0.0936,  0.2090,    0.0000,    0,    0,    0,    0,    0,    0,    0,    1,    0,    1,    1
    17,    10,    '1',    0.0324,  0.0845,    0.0000,    0,    0,    0,    0,    0,    0,    0,    1,    0,    1,    1
    21,    10,    '1',    0.0348,  0.0749,    0.0000,    0,    0,    0,    0,    0,    0,    0,    1,    0,    1,    1
    22,    10,    '1',    0.0727,  0.1499,    0.0000,    0,    0,    0,    0,    0,    0,    0,    1,    0,    1,    1
    22,    21,    '1',    0.0116,  0.0236,    0.0000,    0,    0,    0,    0,    0,    0,    0,    1,    0,    1,    1
    23,    15,    '1',    0.1000,  0.2020,    0.0000,    0,    0,    0,    0,    0,    0,    0,    1,    0,    1,    1
    24,    22,    '1',    0.1150,  0.1790,    0.0000,    0,    0,    0,    0,    0,    0,    0,    1,    0,    1,    1
    24,    23,    '1',    0.1320,  0.2700,    0.0000,    0,    0,    0,    0,    0,    0,    0,    1,    0,    1,    1
    25,    24,    '1',    0.1885,  0.3292,    0.0000,    0,    0,    0,    0,    0,    0,    0,    1,    0,    1,    1
    26,    25,    '1',    0.2544,  0.3800,    0.0000,    0,    0,    0,    0,    0,    0,    0,    1,    0,    1,    1
    27,    25,    '1',    0.1093,  0.2087,    0.0000,    0,    0,    0,    0,    0,    0,    0,    1,    0,    1,    1
    29,    27,    '1',    0.2198,  0.4153,    0.0000,    0,    0,    0,    0,    0,    0,    0,    1,    0,    1,    1
    30,    27,    '1',    0.3202,  0.6027,    0.0000,    0,    0,    0,    0,    0,    0,    0,    1,    0,    1,    1
    30,    29,    '1',    0.2399,  0.4533,    0.0000,    0,    0,    0,    0,    0,    0,    0,    1,    0,    1,    1
    28,     8,    '1',    0.0636,  0.2000,    0.0428,    0,    0,    0,    0,    0,    0,    0,    1,    0,    1,    1
    28,     6,    '1',    0.0169,  0.0599,    0.0130,    0,    0,    0,    0,    0,    0,    0,    1,    0,    1,    1
0 / END OF BRANCH DATA, BEGIN TRANSFORMER DATA
6,    9,    0,'1',1,1,1,    0,    0,    2,    '        ',1,    1,    1
    0,    0.208,    100
    0.978,    0,    0,    0,    0,    0,    0,    0,    1.1,    0.9,    1.1,    0.9,    33,    0,    0,    0
    1,    0
6,    10,    0,'1',1,1,1,    0,    0,    2,    '        ',1,    1,    1
    0,    0.556,    100
    0.969,    0,    0,    0,    0,    0,    0,    0,    1.1,    0.9,    1.1,    0.9,    33,    0,    0,    0
    1,    0
4,    12,    0,'1',1,1,1,    0,    0,    2,    '        ',1,    1,    1
    0,    0.256,    100
    0.932,    0,    0,    0,    0,    0,    0,    0,    1.1,    0.9,    1.1,    0.9,    33,    0,    0,    0
    1,    0
28,    27,    0,'1',1,1,1,    0,    0,    2,    '        ',1,    1,    1
    0,    0.396,    100
    0.968,    0,    0,    0,    0,    0,    0,    0,    1.1,    0.9,    1.1,    0.9,    33,    0,    0,    0
    1,    0
0 / END OF TRANSFORMER DATA, BEGIN AREA DATA
0 / END OF TRANSFORMER DATA, BEGIN AREA DATA
0 / END OF AREA DATA, BEGIN TWO-TERMINAL DC DATA
0 / END OF TWO-TERMINAL DC DATA, BEGIN VSC DC LINE DATA
0 / END OF VSC DC LINE DATA, BEGIN SWITCHED SHUNT DATA
0 / END OF SWITCHED SHUNT DATA, BEGIN IMPEDANCE CORRECTION DATA
0 / END OF IMPEDANCE CORRECTION DATA, BEGIN MULTI-TERMINAL DC DATA
0 / END OF MULTI-TERMINAL DC DATA, BEGIN MULTI-SECTION LINE DATA
0 / END OF MULTI-SECTION LINE DATA, BEGIN ZONE DATA
0 / END OF ZONE DATA, BEGIN INTER-AREA TRANSFER DATA
0 / END OF INTER-AREA TRANSFER DATA, BEGIN OWNER DATA
0 / END OF OWNER DATA, BEGIN FACTS DEVICE DATA
0 / END OF FACTS DEVICE DATA
